/*--------------------------------*- C++ -*----------------------------------*\
| =========                 |                                                 |
| \\      /  F ield         | OpenFOAM: The Open Source CFD Toolbox           |
|  \\    /   O peration     | Version:  v2012                                 |
|   \\  /    A nd           | Website:  www.openfoam.com                      |
|    \\/     M anipulation  |                                                 |
\*---------------------------------------------------------------------------*/
FoamFile
{
    version     2.0;
    format      ascii;
    class       polyBoundaryMesh;
    location    "constant/polyMesh";
    object      boundary;
}
// * * * * * * * * * * * * * * * * * * * * * * * * * * * * * * * * * * * * * //

4
(
    inlet
    {
        type            patch;
        nFaces          1024;
        startFace       281112;
    }
    outlet
    {
        type            patch;
        nFaces          1024;
        startFace       282136;
    }
    container
    {
        type            wall;
        inGroups        1(wall);
        nFaces          29120;
        startFace       283160;
    }
    atmosphere
    {
        type            patch;
        nFaces          3020;
        startFace       312280;
    }
)

// ************************************************************************* //
