/*--------------------------------*- C++ -*----------------------------------*\
  =========                 |
  \\      /  F ield         | OpenFOAM: The Open Source CFD Toolbox
   \\    /   O peration     | Website:  https://openfoam.org
    \\  /    A nd           | Version:  7
     \\/     M anipulation  |
\*---------------------------------------------------------------------------*/
FoamFile
{
    version     2.0;
    format      ascii;
    class       polyBoundaryMesh;
    location    "constant/polyMesh";
    object      boundary;
}
// * * * * * * * * * * * * * * * * * * * * * * * * * * * * * * * * * * * * * //

4
(
    inlet
    {
        type            patch;
        nFaces          784;
        startFace       277446;
    }
    outlet
    {
        type            patch;
        nFaces          784;
        startFace       278230;
    }
    container
    {
        type            wall;
        inGroups        List<word> 1(wall);
        nFaces          29120;
        startFace       279014;
    }
    atmosphere
    {
        type            patch;
        nFaces          2900;
        startFace       308134;
    }
)

// ************************************************************************* //
